
 OpenBabel12082219123D

  5  4  0  0  0  0  0  0  0  0999 V2000
   -0.5791   -1.0251   -0.8110 C   0  0  0  0  0  0  0  0  0  0  0  0
    0.4353   -0.9593    0.4814 N   0  0  0  0  0  0  0  0  0  0  0  0
   -1.4207   -0.4284   -0.8373 H   0  0  0  0  0  0  0  0  0  0  0  0
   -0.3742   -1.6631   -1.5959 H   0  0  0  0  0  0  0  0  0  0  0  0
    0.2398   -0.3507    1.2301 H   0  0  0  0  0  0  0  0  0  0  0  0
  1  2  2  0  0  0  0
  1  3  1  0  0  0  0
  1  4  1  0  0  0  0
  2  5  1  0  0  0  0
M  END
