
 OpenBabel12082219223D

  3  2  0  0  0  0  0  0  0  0999 V2000
   -0.4258   -2.3321   -0.7132 N   0  0  0  0  0  0  0  0  0  0  0  0
    0.0240   -1.3500   -0.0695 O   0  0  0  0  0  0  0  0  0  0  0  0
   -1.1463   -2.8831   -0.3304 H   0  0  0  0  0  0  0  0  0  0  0  0
  1  2  2  0  0  0  0
  1  3  1  0  0  0  0
M  END
