
 OpenBabel12092212553D

 10  9  0  0  0  0  0  0  0  0999 V2000
   -0.7062   -5.2667   -0.5886 C   0  0  0  0  0  0  0  0  0  0  0  0
   -0.3845   -4.2335    0.2900 C   0  0  0  0  0  0  0  0  0  0  0  0
   -0.3996   -6.2014   -0.1676 H   0  0  0  0  0  0  0  0  0  0  0  0
   -0.2025   -5.1127   -1.5200 H   0  0  0  0  0  0  0  0  0  0  0  0
   -1.7635   -5.2791   -0.7528 H   0  0  0  0  0  0  0  0  0  0  0  0
   -0.4235   -2.9312   -0.4546 C   0  0  0  0  0  0  0  0  0  0  0  0
    0.2816   -2.9590   -1.2590 H   0  0  0  0  0  0  0  0  0  0  0  0
   -0.1735   -2.1320    0.2114 H   0  0  0  0  0  0  0  0  0  0  0  0
   -1.4064   -2.7741   -0.8472 H   0  0  0  0  0  0  0  0  0  0  0  0
   -0.0717   -4.3823    1.6600 O   0  0  0  0  0  0  0  0  0  0  0  0
  1  2  1  0  0  0  0
  1  3  1  0  0  0  0
  1  4  1  0  0  0  0
  1  5  1  0  0  0  0
  2  6  1  0  0  0  0
  2 10  2  0  0  0  0
  6  7  1  0  0  0  0
  6  8  1  0  0  0  0
  6  9  1  0  0  0  0
M  END
