
 OpenBabel12082218153D

 20 16  0  0  0  0  0  0  0  0999 V2000
    1.8982   -2.7272    1.7380 C   0  0  0  0  0  0  0  0  0  0  0  0
    1.6429    0.3223   -0.1322 C   0  0  0  0  0  0  0  0  0  0  0  0
    1.5020    3.8986   -2.3193 C   0  0  0  0  0  0  0  0  0  0  0  0
    1.6334    7.8471   -4.7227 C   0  0  0  0  0  0  0  0  0  0  0  0
    0.6474   -2.8583    1.7689 F   0  0  0  0  0  0  0  0  0  0  0  0
    2.2715   -2.6307    2.7361 H   0  0  0  0  0  0  0  0  0  0  0  0
    2.1514   -1.8523    1.1764 H   0  0  0  0  0  0  0  0  0  0  0  0
    2.3356   -3.5871    1.2752 H   0  0  0  0  0  0  0  0  0  0  0  0
    0.0544    0.1442   -0.0858 Cl  0  0  0  0  0  0  0  0  0  0  0  0
    1.9020    1.0122   -0.9080 H   0  0  0  0  0  0  0  0  0  0  0  0
    2.1024   -0.6239   -0.3283 H   0  0  0  0  0  0  0  0  0  0  0  0
    1.9874    0.6978    0.8087 H   0  0  0  0  0  0  0  0  0  0  0  0
   -0.0938    3.8341   -2.3425 Br  0  0  0  0  0  0  0  0  0  0  0  0
    1.8730    3.2700   -1.5369 H   0  0  0  0  0  0  0  0  0  0  0  0
    1.8157    4.9068   -2.1458 H   0  0  0  0  0  0  0  0  0  0  0  0
    1.8862    3.5623   -3.2596 H   0  0  0  0  0  0  0  0  0  0  0  0
   -0.0633    7.7381   -4.7227 I   0  0  0  0  0  0  0  0  0  0  0  0
    2.0393    7.0921   -5.3631 H   0  0  0  0  0  0  0  0  0  0  0  0
    1.9999    7.7055   -3.7275 H   0  0  0  0  0  0  0  0  0  0  0  0
    1.9287    8.8124   -5.0776 H   0  0  0  0  0  0  0  0  0  0  0  0
  1  5  1  0  0  0  0
  1  6  1  0  0  0  0
  1  7  1  0  0  0  0
  1  8  1  0  0  0  0
  2  9  1  0  0  0  0
  2 10  1  0  0  0  0
  2 11  1  0  0  0  0
  2 12  1  0  0  0  0
  3 13  1  0  0  0  0
  3 14  1  0  0  0  0
  3 15  1  0  0  0  0
  3 16  1  0  0  0  0
  4 17  1  0  0  0  0
  4 18  1  0  0  0  0
  4 19  1  0  0  0  0
  4 20  1  0  0  0  0
M  END
