
 OpenBabel12082218433D

  9  8  0  0  0  0  0  0  0  0999 V2000
    3.9128    2.1379   -1.1507 C   0  0  0  0  0  0  0  0  0  0  0  0
    2.5686    1.0777   -0.5567 O   0  0  0  0  0  0  0  0  0  0  0  0
    3.9947    2.9976   -0.5190 H   0  0  0  0  0  0  0  0  0  0  0  0
    3.7046    2.4500   -2.1527 H   0  0  0  0  0  0  0  0  0  0  0  0
    4.8328    1.5919   -1.1310 H   0  0  0  0  0  0  0  0  0  0  0  0
    1.0924    1.7319   -1.0136 C   0  0  0  0  0  0  0  0  0  0  0  0
    0.3001    1.1045   -0.6620 H   0  0  0  0  0  0  0  0  0  0  0  0
    1.0471    1.7994   -2.0805 H   0  0  0  0  0  0  0  0  0  0  0  0
    0.9886    2.7088   -0.5897 H   0  0  0  0  0  0  0  0  0  0  0  0
  1  2  1  0  0  0  0
  1  3  1  0  0  0  0
  1  4  1  0  0  0  0
  1  5  1  0  0  0  0
  2  6  1  0  0  0  0
  6  7  1  0  0  0  0
  6  8  1  0  0  0  0
  6  9  1  0  0  0  0
M  END
